ZINC01089984
  -OEChem-07121213183D

 43 46  0     0  0  0  0  0  0999 V2000
    1.1740    2.0812   -0.4485 C   0  0  0  0  0  0  0  0  0  0  0  0
    1.1466    3.4591   -0.2184 C   0  0  0  0  0  0  0  0  0  0  0  0
   -0.0779    4.1512   -0.1959 C   0  0  0  0  0  0  0  0  0  0  0  0
   -1.2587    3.4480   -0.4048 C   0  0  0  0  0  0  0  0  0  0  0  0
   -1.2156    2.0830   -0.6374 C   0  0  0  0  0  0  0  0  0  0  0  0
    0.0058    1.4036   -0.6526 C   0  0  0  0  0  0  0  0  0  0  0  0
    0.0313    0.0714   -0.8756 F   0  0  0  0  0  0  0  0  0  0  0  0
   -2.3991    1.3812   -0.8526 N   0  0  0  0  0  0  0  0  0  0  0  0
   -3.0571    1.8253   -2.0887 C   0  0  0  0  0  0  0  0  0  0  0  0
   -4.2515    0.9117   -2.3841 C   0  0  0  0  0  0  0  0  0  0  0  0
   -5.1180    0.8767   -1.1963 N   0  0  0  0  0  0  0  0  0  0  0  0
   -4.5032    0.5731    0.1049 C   0  0  0  0  0  0  0  0  0  0  0  0
   -3.2990    1.4999    0.3024 C   0  0  0  0  0  0  0  0  0  0  0  0
   -6.4404    1.1169   -1.2973 C   0  0  0  0  0  0  0  0  0  0  0  0
   -7.4280    1.0708    0.1003 S   0  0  0  0  0  0  0  0  0  0  0  0
   -7.1324    1.4680   -2.8233 S   0  5  0  0  0  0  0  0  0  0  0  0
   -0.1044    5.5113    0.0303 N   0  0  0  0  0  0  0  0  0  0  0  0
    1.0046    6.2336    0.2369 C   0  0  0  0  0  0  0  0  0  0  0  0
    2.2620    5.6654    0.2373 C   0  0  0  0  0  0  0  0  0  0  0  0
    2.3891    4.2171    0.0044 C   0  0  0  0  0  0  0  0  0  0  0  0
    3.4775    3.6685   -0.0040 O   0  0  0  0  0  0  0  0  0  0  0  0
    3.4549    6.4921    0.4673 C   0  0  0  0  0  0  0  0  0  0  0  0
    4.5580    5.9812    0.4657 O   0  0  0  0  0  0  0  0  0  0  0  0
   -1.4000    6.1949    0.0460 C   0  0  0  0  0  0  0  0  0  0  0  0
   -1.3936    7.7228   -0.0327 C   0  0  0  0  0  0  0  0  0  0  0  0
   -1.7454    7.0260    1.2832 C   0  0  0  0  0  0  0  0  0  0  0  0
    2.1161    1.5534   -0.4646 H   0  0  0  0  0  0  0  0  0  0  0  0
   -2.2067    3.9651   -0.3902 H   0  0  0  0  0  0  0  0  0  0  0  0
   -3.4051    2.8510   -1.9672 H   0  0  0  0  0  0  0  0  0  0  0  0
   -2.3487    1.7766   -2.9156 H   0  0  0  0  0  0  0  0  0  0  0  0
   -3.8964   -0.0942   -2.6082 H   0  0  0  0  0  0  0  0  0  0  0  0
   -4.8106    1.3034   -3.2339 H   0  0  0  0  0  0  0  0  0  0  0  0
   -4.1723   -0.4654    0.1201 H   0  0  0  0  0  0  0  0  0  0  0  0
   -5.2272    0.7384    0.9027 H   0  0  0  0  0  0  0  0  0  0  0  0
   -2.7659    1.2154    1.2096 H   0  0  0  0  0  0  0  0  0  0  0  0
   -3.6432    2.5304    0.3909 H   0  0  0  0  0  0  0  0  0  0  0  0
    0.9115    7.2959    0.4083 H   0  0  0  0  0  0  0  0  0  0  0  0
   -2.2153    5.6685   -0.4504 H   0  0  0  0  0  0  0  0  0  0  0  0
   -0.4254    8.2195   -0.0960 H   0  0  0  0  0  0  0  0  0  0  0  0
   -2.2047    8.2020   -0.5809 H   0  0  0  0  0  0  0  0  0  0  0  0
   -2.7879    7.0467    1.6007 H   0  0  0  0  0  0  0  0  0  0  0  0
   -1.0086    7.0642    2.0856 H   0  0  0  0  0  0  0  0  0  0  0  0
    3.3259    7.8170    0.6803 O   0  5  0  0  0  0  0  0  0  0  0  0
  1  6  2  0  0  0  0
  1  2  1  0  0  0  0
  1 27  1  0  0  0  0
  2 20  1  0  0  0  0
  2  3  2  0  0  0  0
  3  4  1  0  0  0  0
  3 17  1  0  0  0  0
  4  5  2  0  0  0  0
  4 28  1  0  0  0  0
  5  6  1  0  0  0  0
  5  8  1  0  0  0  0
  6  7  1  0  0  0  0
  8 13  1  0  0  0  0
  8  9  1  0  0  0  0
  9 10  1  0  0  0  0
  9 29  1  0  0  0  0
  9 30  1  0  0  0  0
 10 11  1  0  0  0  0
 10 31  1  0  0  0  0
 10 32  1  0  0  0  0
 11 12  1  0  0  0  0
 11 14  1  0  0  0  0
 12 13  1  0  0  0  0
 12 33  1  0  0  0  0
 12 34  1  0  0  0  0
 13 35  1  0  0  0  0
 13 36  1  0  0  0  0
 14 15  2  0  0  0  0
 14 16  1  0  0  0  0
 17 18  1  0  0  0  0
 17 24  1  0  0  0  0
 18 19  2  0  0  0  0
 18 37  1  0  0  0  0
 19 20  1  0  0  0  0
 19 22  1  0  0  0  0
 20 21  2  0  0  0  0
 22 23  2  0  0  0  0
 22 43  1  0  0  0  0
 24 26  1  0  0  0  0
 24 25  1  0  0  0  0
 24 38  1  0  0  0  0
 25 26  1  0  0  0  0
 25 39  1  0  0  0  0
 25 40  1  0  0  0  0
 26 41  1  0  0  0  0
 26 42  1  0  0  0  0
M  CHG  2  16  -1  43  -1
M  END
$$$$